case1354pegase_SE.m
function mpc = case1354pegase_SE
%CASE1354PEGASE_SE

%% MATPOWER Case Format : Version 2
mpc.version = '2';

%%-----  Power Flow Data  -----%%
%% system MVA base
mpc.baseMVA = 100;

%% bus data
%	bus_i	type	Pd	Qd	Gs	Bs	area	Vm	Va	baseKV	zone	Vmax	Vmin
mpc.bus = [
	1	1	151	48.8	0	4.69	0	1.0166797	-21.1926397	220	5	1.1	0.9;
	2	1	171.41	23.4	0	2.1	0	1.02665747	-6.83266014	220	5	1.1	0.9;
	3	1	134	24.7	0	12.44	0	1.03851504	-23.7948546	220	5	1.1	0.9;
	4	1	161.2	39.3	0	30.71	0	1.03617049	-21.4577177	220	5	1.1	0.9;
	5	1	0	-0	0	0.85	0	1.03507394	-18.0168379	220	5	1.1	0.9;
	6	1	167.3	54.8	0	110.54	0	1.03234558	-3.08015708	380	5	1.1	0.9;
	7	1	152.9	49.4	0	27.65	0	0.994416677	-13.3564933	380	5	1.1	0.9;
	8	1	-0	0	0	7.27	0	1.04580961	-21.6931657	220	5	1.1	0.9;
	9	1	48.65	16.1	0	7.14	0	1.06343645	-8.98463149	220	5	1.1	0.9;
	10	1	0	0	0	2.31	0	0.986242542	-15.3045301	380	5	1.1	0.9;
	11	1	119.2	20.7	0	3.31	0	1.03683612	-23.4074421	220	5	1.1	0.9;
	12	1	363.25	115.39	0	3.95	0	1.04217696	-27.2268937	220	5	1.1	0.9;
	13	1	-8.4	28.66	0	3.49	0	1.03045133	-15.2357747	220	5	1.1	0.9;
	14	1	-0	-0	0	6.532711	0	1.03072119	-13.824064	380	5	1.1	0.9;
	15	1	0	-0	0	4.21	0	1.0667787	-19.2599228	220	5	1.1	0.9;
	16	1	704.53	-35.33	0	13.102834	0	1.02027725	-11.0735113	380	5	1.1	0.9;
	17	2	0	0	0	0	0	1.081537	8.47123448	220	5	1.1	0.9;
	18	1	23.73	12.7	0	0.52	0	1.02052168	-15.6077768	220	5	1.1	0.9;
	19	1	38.34	5.6	0	7.64	0	1.03909547	-8.70006533	220	5	1.1	0.9;
	20	1	32.34	12	0	6.1	0	1.04156827	-7.83749105	220	5	1.1	0.9;
	21	2	0	0	0	0	0	1.062805	2.69549319	220	5	1.1	0.9;
	22	1	147.76	32.73	0	8.34	0	1.04704915	-10.1687206	220	5	1.1	0.9;
	23	1	100.8	13.2	0	5.24	0	1.06963884	-24.7890699	220	5	1.1	0.9;
	24	1	370.5	-17	0	9.91	0	1.07477065	-27.4491002	220	5	1.1	0.9;
	25	1	-0	-0	0	2.42	0	1.04298688	-11.6281407	220	5	1.1	0.9;
	26	1	36.84	13.9	0	3.3	0	1.01877099	-19.131305	220	5	1.1	0.9;
	27	1	73.14	21.55	0	8.52	0	1.05633606	-8.40504435	220	5	1.1	0.9;
	28	1	0	-0	0	12.48	0	1.07478041	-25.8204271	220	5	1.1	0.9;
	29	1	39.74	11.8	0	1.44	0	1.01676908	-15.8485805	220	5	1.1	0.9;
	30	1	321.98	84.4	0	1.34	0	1.02689257	-13.1964927	220	5	1.1	0.9;
	31	1	155.6	54.7	0	2.21	0	1.03936156	-24.0996026	220	5	1.1	0.9;
	32	1	105.2	0.1	0	7.36	0	1.04276847	-2.13026857	220	5	1.1	0.9;
	33	1	69.83	15.12	0	2.23	0	1.04593974	-12.5982734	220	5	1.1	0.9;
	34	2	0	0	0	0	0	0.984682	-15.9395526	380	5	1.1	0.9;
	35	1	0	0	0	1.15	0	1.06374197	-19.6505011	220	5	1.1	0.9;
	36	1	119.6	29.6	0	5.34	0	1.03572681	-10.8101763	220	5	1.1	0.9;
	37	1	27.33	11.9	0	1.17	0	1.03558776	-11.8865879	220	5	1.1	0.9;
	38	1	13.82	1.4	0	0.7	0	1.04763462	-14.2060185	220	5	1.1	0.9;
	39	1	103	12	0	0.63	0	1.06703	-32.182615	220	5	1.1	0.9;
	40	1	-0	0	0	4.76	0	1.02999206	-18.3157678	220	5	1.1	0.9;
	41	1	163.1	46.3	0	10.6	0	1.00557326	-15.544371	220	5	1.1	0.9;
	42	1	524.5	43	0	6.85	0	1.01496882	-41.7406595	220	5	1.1	0.9;
	43	2	0	0	0	0	0	1.048249	-5.88561128	220	5	1.1	0.9;
	44	1	197.5	48.3	0	0.71	0	1.04069355	-20.807535	220	5	1.1	0.9;
	45	1	110.4	26.2	0	5.62	0	1.04317462	-23.7996197	220	5	1.1	0.9;
	46	2	0	0	0	0	0	1.055378	0.779111911	380	5	1.1	0.9;
	47	1	65.17	-51.5	0	4.85	0	1.07159744	-23.0996488	220	5	1.1	0.9;
	48	1	56.5	36.29	0	3.08	0	1.02654727	-13.9379503	220	5	1.1	0.9;
	49	1	129.1	7.4	0	0.04	0	1.03979036	-11.4070211	220	5	1.1	0.9;
	50	1	170.89	50.38	0	6.44	0	1.04157184	-26.1860037	220	5	1.1	0.9;
	51	2	0	0	0	0	0	1.05013	-6.09042987	220	5	1.1	0.9;
	52	1	70.68	13.5	0	6.96	0	1.04580039	-6.22180716	220	5	1.1	0.9;
	53	1	123.1	6.5	0	3.25	0	1.04053123	-18.050164	220	5	1.1	0.9;
	54	1	-0	-0	0	68.517663	0	1.04782378	2.54427444	380	5	1.1	0.9;
	55	1	0	-0	0	2.45	0	1.03654488	-11.9384839	220	5	1.1	0.9;
	56	1	0	0	0	29.42	0	1.02173684	-7.97400034	380	5	1.1	0.9;
	57	2	0	0	0	0	0	1.018914	-7.47103875	380	5	1.1	0.9;
	58	1	274.32	5.66	0	13.24	0	1.04622895	-30.4677442	220	5	1.1	0.9;
	59	1	20.52	4	0	2.77	0	1.03645157	-22.5130398	220	5	1.1	0.9;
	60	1	144.4	35.5	0	7.66	0	1.04042601	-14.5170717	220	5	1.1	0.9;
	61	1	-0	0	0	1.96	0	1.04356438	-6.52117009	220	5	1.1	0.9;
	62	1	-0	0	0	0.4	0	1.06329648	-8.78908026	380	5	1.1	0.9;
	63	1	57.46	17.1	0	1.61	0	1.03848366	-7.28592853	220	5	1.1	0.9;
	64	2	0	0	0	0	0	1.075592	-32.9569917	220	5	1.1	0.9;
	65	1	118.5	20.4	0	2.57	0	1.04823743	-26.8063302	220	5	1.1	0.9;
	66	1	0	-0	0	5.15	0	1.07567751	-10.437989	220	5	1.1	0.9;
	67	1	0	-0	0	1.97	0	1.02408805	-20.3265079	220	5	1.1	0.9;
	68	1	16.52	9	0	1.17	0	1.03693924	-22.2616775	220	5	1.1	0.9;
	69	1	0	-0	0	0.32	0	1.05544861	-10.9909465	220	5	1.1	0.9;
	70	2	0	0	0	0	0	1.069817	-46.7688369	220	5	1.1	0.9;
	71	1	0	-0	0	0.67	0	1.0443928	-10.9311725	220	5	1.1	0.9;
	72	2	0	0	0	0	0	1.045397	-15.0375278	220	5	1.1	0.9;
	73	1	67.57	17	0	5.75	0	1.03668122	-8.35358826	220	5	1.1	0.9;
	74	1	140.6	42.6	0	5.71	0	1.04071059	-13.850794	220	5	1.1	0.9;
	75	1	33.24	4.4	0	24.54	0	0.996938254	-12.4444331	380	5	1.1	0.9;
	76	1	150.9	10.4	0	4.77	0	1.07175471	-32.3308645	220	5	1.1	0.9;
	77	1	-0	-0	0	5.67	0	1.02535326	-14.2577594	220	5	1.1	0.9;
	78	2	0	0	0	0	0	1.063876	-10.2968877	220	5	1.1	0.9;
	79	2	0	0	0	0	0	1.048713	-12.4264123	220	5	1.1	0.9;
	80	1	72.88	14.4	0	2.96	0	1.04676751	-24.8038658	220	5	1.1	0.9;
	81	2	0	0	0	0	0	1.051376	-30.1384236	220	5	1.1	0.9;
	82	1	45.32	18.5	0	0.74	0	1.03515015	-13.5339483	220	5	1.1	0.9;
	83	1	258.4	66.7	0	5.87	0	1.03400117	-17.1077453	220	5	1.1	0.9;
	84	1	-0	-0	0	0.6	0	1.04002147	2.88170465	380	5	1.1	0.9;
	85	1	-5.61	-2.79	0	150.93	0	1.03077206	-4.90322638	380	5	1.1	0.9;
	86	1	232.1	89.8	0	0.09	0	0.986375398	-17.9950427	220	5	1.1	0.9;
	87	2	0	0	0	0	0	1.0691	-9.63313601	220	5	1.1	0.9;
	88	1	-0	0	0	5.6	0	1.05781716	-3.13293989	220	5	1.1	0.9;
	89	1	83.99	21.2	0	5.36	0	1.05453163	-25.2366399	220	5	1.1	0.9;
	90	1	135.11	41	0	5.31	0	1.0311508	-24.5882867	220	5	1.1	0.9;
	91	1	-0	-0	0	23.554121	0	0.982114624	-26.9577251	380	5	1.1	0.9;
	92	1	400.3	189.9	0	0.53	0	1.04846959	-3.99711909	220	5	1.1	0.9;
	93	1	0	-0	0	2.83	0	1.05798689	-3.1344481	220	5	1.1	0.9;
	94	1	69.58	16	0	3.03	0	1.07387771	-25.8811332	220	5	1.1	0.9;
	95	2	0	0	0	0	0	1.057884	-28.6366844	220	5	1.1	0.9;
	96	1	-0	-0	0	18.63	0	1.04114095	-23.9538533	220	5	1.1	0.9;
	97	2	0	0	0	0	0	1.017567	-13.3366819	380	5	1.1	0.9;
	98	1	-0	0	0	7.85	0	1.05023294	-20.6501832	220	5	1.1	0.9;
	99	1	152.57	40	0	6.12	0	1.02402527	-10.1763475	220	5	1.1	0.9;
	100	1	343.9	141.9	0	5.55	0	1.03437301	-13.6453726	220	5	1.1	0.9;
	101	2	0	0	0	0	0	1.026368	-13.151619	220	5	1.1	0.9;
	102	2	0	0	0	0	0	1.049411	-6.40402554	220	5	1.1	0.9;
	103	1	-0	-0	0	6.63	0	1.05169999	-5.44501885	220	5	1.1	0.9;
	104	2	0	0	0	0	0	1.035522	-15.0298389	220	5	1.1	0.9;
	105	1	50.56	18	0	0.11	0	1.03516186	-11.9205181	220	5	1.1	0.9;
	106	2	0	0	0	0	0	1.041369	-24.4720798	220	5	1.1	0.9;
	107	1	-0	-0	0	7.26	0	1.05589862	-7.41890698	220	5	1.1	0.9;
	108	1	124.5	29.6	0	15.4	0	1.05674612	-10.6128381	220	5	1.1	0.9;
	109	1	0	-0	0	58.088687	0	1.02752454	0.594465188	380	5	1.1	0.9;
	110	1	0	-0	0	0.22	0	1.05216855	-0.537004054	220	5	1.1	0.9;
	111	2	0	0	0	0	0	1.044097	-1.70729258	380	5	1.1	0.9;
	112	1	-0	-0	0	8.17514	0	1.02440847	-0.718815648	380	5	1.1	0.9;
	113	2	0	0	0	0	0	1.00025	-16.7719685	220	5	1.1	0.9;
	114	2	0	0	0	0	0	1.031745	1.77377272	380	5	1.1	0.9;
	115	1	110	3.4	0	11.95	0	1.04076141	-24.1111071	220	5	1.1	0.9;
	116	1	108.89	-21.76	0	3.72	0	1.05693488	-11.8751627	220	5	1.1	0.9;
	117	1	192.5	78.3	0	6.65	0	1.01724747	-9.91535419	220	5	1.1	0.9;
	118	2	0	0	0	0	0	1.064525	-18.5457781	380	5	1.1	0.9;
	119	1	-0	-0	0	9.1	0	1.06919974	-34.5013527	220	5	1.1	0.9;
	120	1	0	0	0	0.15	0	1.05024712	-15.3565378	220	5	1.1	0.9;
	121	1	82.69	20.1	0	1.36	0	1.07383981	-25.9062783	220	5	1.1	0.9;
	122	1	631.71	-54.16	0	7.534129	0	1.03564973	-14.5362844	380	5	1.1	0.9;
	123	1	-0	-0	0	0.05	0	1.0385547	-9.56389018	220	5	1.1	0.9;
	124	1	125.9	-0.5	0	0.21	0	1.06521441	-7.87651354	220	5	1.1	0.9;
	125	1	34.44	8.5	0	1.11	0	1.04553643	-20.2790427	220	5	1.1	0.9;
	126	1	62.07	14.7	0	4.84	0	1.03559606	-22.5889305	220	5	1.1	0.9;
	127	1	-0	0	0	22.75	0	1.01998602	-20.9482169	220	5	1.1	0.9;
	128	1	-0	0	0	9.46	0	1.04920793	-24.0219355	220	5	1.1	0.9;
	129	1	108.7	-12.15	0	37.11	0	1.06599568	-12.4660503	380	5	1.1	0.9;
	130	1	66.27	13.6	0	0.67	0	1.0443313	-21.0807518	220	5	1.1	0.9;
	131	1	-0	-0	0	108.728602	0	1.06329517	-8.78907568	380	5	1.1	0.9;
	132	1	88.5	16.5	0	146.44	0	1.01558409	-11.2359208	380	5	1.1	0.9;
	133	2	0	0	0	0	0	1.072621	5.86231602	380	5	1.3	0.7;
	134	1	14.71	4.6	0	7.88	0	1.04718921	-24.6900781	220	5	1.1	0.9;
	135	2	0	0	0	0	0	1.074143	-33.1254673	220	5	1.1	0.9;
	136	2	0	0	0	0	0	1.041506	-19.5944953	220	5	1.1	0.9;
	137	1	0	0	0	0.81	0	1.05395532	-12.0560099	220	5	1.1	0.9;
	138	1	44.55	0	0	4.78	0	1.05627799	-4.89098564	220	5	1.1	0.9;
	139	1	201.4	53	0	9.67	0	1.02817573	-29.0377449	220	5	1.1	0.9;
	140	1	-5.91	-2.33	0	30.393595	0	0.990517523	-17.6886919	380	5	1.1	0.9;
	141	1	26.33	5.3	0	4.31	0	1.04093388	-24.0309614	220	5	1.1	0.9;
	142	1	382.5	57.9	0	8.16	0	1.0676568	-32.070425	220	5	1.1	0.9;
	143	1	34.64	-0	0	0.91	0	1.03444349	-18.9929699	220	5	1.1	0.9;
	144	1	31.94	8.8	0	3.79	0	1.03891314	-8.82392167	220	5	1.1	0.9;
	145	2	0	0	0	0	0	1.028946	-3.39620086	380	5	1.1	0.9;
	146	1	-0	0	0	3.79	0	1.04162736	-12.5049363	220	5	1.1	0.9;
	147	1	-0	0	0	0.1	0	1.03558931	-11.8866091	220	5	1.1	0.9;
	148	1	-0	-0	0	4.74	0	1.06150956	-2.96622348	220	5	1.1	0.9;
	149	1	277.86	58.95	0	182.880644	0	1.03864963	-10.1553326	380	5	1.1	0.9;
	150	2	0	0	0	0	0	1.049472	-8.1037254	220	5	1.1	0.9;
	151	1	56.06	18.7	0	4.24	0	1.01005901	-21.1849656	220	5	1.1	0.9;
	152	2	0	0	0	0	0	1.027056	-8.08477186	380	5	1.1	0.9;
	153	1	0	-0	0	0.16	0	1.05018868	-0.933919886	220	5	1.1	0.9;
	154	2	0	0	0	0	0	1.042801	-4.15241483	220	5	1.1	0.9;
	155	1	-0	-0	0	2.05	0	1.03350878	-13.6872889	220	5	1.1	0.9;
	156	2	0	0	0	0	0	1.049879	-6.12591762	220	5	1.1	0.9;
	157	1	29.83	7.3	0	6.49	0	1.07471454	-25.8265023	220	5	1.1	0.9;
	158	1	0	0	0	1.1	0	1.0368215	-8.35549882	220	5	1.1	0.9;
	159	1	190.47	55.03	0	6.7	0	1.00328391	-22.0254222	220	5	1.1	0.9;
	160	1	16.22	2	0	0.71	0	1.03480241	-18.0725133	220	5	1.1	0.9;
	161	1	-0	-0	0	0.05	0	1.04869188	-23.9798451	220	5	1.1	0.9;
	162	1	32.84	-0	0	1.41	0	1.0326376	-5.12841009	220	5	1.1	0.9;
	163	1	-0	-0	0	18.82	0	1.04335223	-20.1153492	220	5	1.1	0.9;
	164	1	12.41	3.9	0	2.23	0	1.03460019	-5.23308767	220	5	1.1	0.9;
	165	1	65.67	24	0	9.95	0	1.0380509	-22.0008553	220	5	1.1	0.9;
	166	1	112.4	13	0	3.99	0	1.05263351	-35.6977271	220	5	1.1	0.9;
	167	1	-0	-0	0	2.3	0	1.07442368	-25.0577628	220	5	1.1	0.9;
	168	1	86.6	23.4	0	0.39	0	1.04090205	-2.32921418	220	5	1.1	0.9;
	169	1	199.4	-19.9	0	6.68	0	1.06676345	-32.4572643	220	5	1.1	0.9;
	170	1	67.57	21.2	0	5.71	0	1.03985663	-4.45516457	220	5	1.1	0.9;
	171	1	30.93	6.6	0	9.09	0	1.05451594	-13.8941004	220	5	1.1	0.9;
	172	1	129.6	13.3	0	13.98	0	1.03897928	-14.7057741	380	5	1.1	0.9;
	173	1	0	0	0	30.637696	0	0.987965429	-14.1652465	380	5	1.1	0.9;
	174	1	114.1	23.5	0	1.08	0	1.05031692	-19.4182781	220	5	1.1	0.9;
	175	1	0	0	0	4.93	0	1.04061406	-10.3344995	220	5	1.1	0.9;
	176	1	0	-0	0	1.72	0	1.03797662	-22.0256884	220	5	1.1	0.9;
	177	1	71.78	17.9	0	1.96	0	1.02264999	-16.0193625	220	5	1.1	0.9;
	178	2	0	0	0	0	0	1.108028	-5.73439556	380	5	1.3	0.7;
	179	1	0	0	0	1.17	0	1.04720708	-10.1702626	220	5	1.1	0.9;
	180	1	348.93	26.47	0	9.36	0	1.02012254	-10.5449463	380	5	1.1	0.9;
	181	2	0	0	0	0	0	1.027102	-8.09424793	380	5	1.1	0.9;
	182	1	-0	0	0	10.73	0	1.03860281	-21.5330875	220	5	1.1	0.9;
	183	1	173	-21.3	0	5.93	0	1.06651783	-49.637309	220	5	1.1	0.9;
	184	1	52.46	2.9	0	0.35	0	1.03264477	-18.350193	220	5	1.1	0.9;
	185	2	0	0	0	0	0	1.03682	-8.36656758	220	5	1.1	0.9;
	186	1	479	99.2	0	10.68	0	1.05180077	-28.2337812	220	5	1.1	0.9;
	187	1	-0	-0	0	4.34	0	1.03824288	-21.9905765	220	5	1.1	0.9;
	188	1	37.94	15.2	0	35.31	0	1.03389203	-21.1788593	380	5	1.1	0.9;
	189	1	0	0	0	0.98	0	1.0693494	-34.5023472	220	5	1.1	0.9;
	190	1	0	0	0	0.59	0	1.02519643	-15.8015745	220	5	1.1	0.9;
	191	2	0	0	0	0	0	1.032899	-13.6831391	220	5	1.1	0.9;
	192	1	-0	-0	0	58.3	0	0.996370442	-13.715906	380	5	1.1	0.9;
	193	2	0	0	0	0	0	1.041045	-7.21954437	220	5	1.1	0.9;
	194	1	-3.29	-1.32	0	190.704588	0	1.03283391	-8.2556789	380	5	1.1	0.9;
	195	1	40.85	14.5	0	0.59	0	1.03986221	-11.5856955	220	5	1.1	0.9;
	196	1	145.2	21.4	0	1.09	0	1.03368125	-22.3615516	220	5	1.1	0.9;
	197	1	30.93	7.6	0	4.69	0	1.07461475	-25.8148148	220	5	1.1	0.9;
	198	1	0	-0	0	2.14	0	1.03792413	-12.4968121	220	5	1.1	0.9;
	199	1	196.7	44.2	0	0.1	0	1.01735138	-18.2845989	220	5	1.1	0.9;
	200	1	11.91	2.9	0	5.27	0	1.03866926	-14.2244807	220	5	1.1	0.9;
...
];

%%  PMU voltage data (confidence intervals around measurements)
%	bus_i	VR_MAX	VR_MIN	VI_MAX	VI_MIN
mpc.Vpmu = [
	5	0.98432	0.98432	-0.320145	-0.320145;
	7	0.967519	0.967519	-0.229719	-0.229719;
	11	0.951508	0.951508	-0.411901	-0.411901;
	12	0.926706	0.926706	-0.476812	-0.476812;
	14	1.00087	1.00087	-0.246282	-0.246282;
	15	1.00707	1.00707	-0.351881	-0.351881;
	22	1.0306	1.0306	-0.184854	-0.184854;
	24	0.954533	0.9531	-0.495039	-0.495766;
	25	1.02239	1.02078	-0.210079	-0.210354;
	29	0.978118	0.978118	-0.277676	-0.277676;
	38	1.0156	1.0156	-0.257099	-0.257099;
	51	1.0442	1.0442	-0.111417	-0.111417;
	56	1.01186	1.01186	-0.141739	-0.141739;
	59	0.958154	0.956778	-0.396608	-0.397133;
	60	1.00721	1.00721	-0.260802	-0.260802;
	62	1.05081	1.05081	-0.162469	-0.162469;
	64	0.902507	0.902507	-0.585132	-0.585132;
	67	0.960316	0.960316	-0.355737	-0.355737;
	68	0.959649	0.959649	-0.392831	-0.392831;
	72	1.0096	1.0096	-0.27123	-0.27123;
	74	1.01119	1.00968	-0.248989	-0.249305;
	82	1.00641	1.00641	-0.242247	-0.242247;
	83	0.98825	0.98825	-0.304172	-0.304172;
	85	 1.027	1.027	-0.0881032	-0.0881032;
	87	1.05403	1.05403	-0.178902	-0.178902;
	92	1.04592	1.04592	-0.073085	-0.073085;
	93	1.0564	1.0564	-0.0578498	-0.0578498;
	94	0.966169	0.966169	-0.468754	-0.468754;
	95	0.929132	0.927744	-0.506666	-0.507329;
	101	0.999448	0.999448	-0.233528	-0.233528;
	102	1.04286	1.04286	-0.11705	-0.11705;
	104	1.0001	1.0001	-0.268534	-0.268534;
	106	0.948524	0.947196	-0.431107	-0.43167;
	110	1.05285	1.05137	-0.00985415	-0.00986814;
	111	1.04363	1.04363	-0.0311073	-0.0311073;
	112	1.02501	1.02366	-0.0128414	-0.0128594;
	118	1.00924	1.00924	-0.338585	-0.338585;
	120	1.01275	1.01275	-0.278131	-0.278131;
	121	0.966593	0.965315	-0.468812	-0.46946;
	124	1.05516	1.05516	-0.145975	-0.145975;
	127	0.953327	0.951986	-0.364429	-0.364921;
	130	0.974439	0.974439	-0.375629	-0.375629;
	132	0.996119	0.996119	-0.197886	-0.197886;
	138	1.05243	1.05243	-0.0900584	-0.0900584;
	140	0.943687	0.943687	-0.300964	-0.300964;
	144	1.02726	1.02593	-0.159267	-0.159487;
	146	1.01692	1.01692	-0.225537	-0.225537;
	147	1.01338	1.01338	-0.213306	-0.213306;
	148	1.06009	1.06009	-0.0549302	-0.0549302;
	152	1.01685	1.01685	-0.144443	-0.144443;
	153	1.05005	1.05005	-0.0171173	-0.0171173;
	155	1.00416	1.00416	-0.244552	-0.244552;
	168	1.04004	1.04004	-0.0423036	-0.0423036;
	170	1.03671	1.03671	-0.080775	-0.080775;
	172	1.00494	1.00494	-0.263751	-0.263751;
	174	0.990571	0.990571	-0.34919	-0.34919;
	177	0.982939	0.982939	-0.282213	-0.282213;
	180	1.00289	1.00289	-0.186689	-0.186689;
	186	0.926662	0.926662	-0.497576	-0.497576;
	188	0.964771	0.963416	-0.37328	-0.3738;
	189	0.881809	0.880569	-0.605315	-0.606188;
	191	1.00358	1.00358	-0.244335	-0.244335;
	195	1.01931	1.01806	-0.208711	-0.208984;
	196	0.956624	0.955332	-0.392959	-0.393532;
	197	0.967375	0.967375	-0.467956	-0.467956;
	200	1.00682	1.00682	-0.255223	-0.255223;
	215	0.995453	0.995453	-0.245854	-0.245854;
	218	1.02419	1.02281	-0.273318	-0.273696;
	221	1.00794	1.00649	-0.260627	-0.260989;
	223	1.00126	1.00126	-0.290836	-0.290836;
	228	0.951054	0.951054	-0.437563	-0.437563;
	230	0.996732	0.996732	-0.246958	-0.246958;
	231	1.03716	1.03716	-0.0254448	-0.0254448;
	234	0.984772	0.984772	-0.436209	-0.436209;
	235	1.02676	1.02676	-0.0898915	-0.0898915;
	243	1.04198	1.04198	-0.204326	-0.204326;
	250	1.06112	1.06112	0.0487471	0.0487471;
	255	0.997693	0.997693	-0.303589	-0.303589;
	256	1.03223	1.03223	-0.0705184	-0.0705184;
	259	1.02502	1.02502	-0.192455	-0.192455;
	260	0.948107	0.946724	-0.454923	-0.455607;
	265	1.02071	1.02071	-0.131703	-0.131703;
	267	0.961003	0.961003	-0.38795	-0.38795;
	272	1.01116	1.00971	-0.19237	-0.192642;
	276	1.00167	1.00033	-0.246125	-0.246443;
	279	1.06136	1.05985	0.144041	0.143855;
	282	0.971141	0.971141	-0.359758	-0.359758;
	284	0.983501	0.983501	-0.193596	-0.193596;
	287	0.696047	0.695028	-0.807843	-0.808999;
	295	0.955439	0.955439	-0.435767	-0.435767;
	297	1.03535	1.03535	-0.0831436	-0.0831436;
	298	0.976542	0.976542	-0.367821	-0.367821;
	300	1.00979	1.00979	-0.0156298	-0.0156298;
	302	0.901142	0.89996	-0.539068	-0.539781;
	303	1.01884	1.01884	-0.312769	-0.312769;
	306	0.984267	0.984267	-0.32012	-0.32012;
	308	1.03094	1.03094	-0.210424	-0.210424;
	318	1.02098	1.02098	-0.257252	-0.257252;
	323	1.03024	1.03024	-0.104476	-0.104476;
	330	0.966899	0.966899	-0.46825	-0.46825;
	335	1.00075	1.00075	-0.273526	-0.273526;
	336	0.955799	0.955799	-0.454793	-0.454793;
	340	0.951519	0.951519	-0.437357	-0.437357;
	347	0.918792	0.918792	-0.513486	-0.513486;
	354	0.960189	0.960189	-0.386277	-0.386277;
	355	1.02811	1.02649	-0.169318	-0.169553;
	357	1.02152	1.02008	-0.205955	-0.206238;
	358	0.879019	0.879019	-0.538834	-0.538834;
	360	1.05118	1.05118	0.148192	0.148192;
	362	0.981548	0.980224	-0.225452	-0.225757;
	368	1.04975	1.0484	0.0243649	0.0243341;
	371	0.980808	0.980808	-0.191328	-0.191328;
	375	1.04287	1.04287	-0.116787	-0.116787;
	378	1.04079	1.04079	-0.0409212	-0.0409212;
	382	1.01129	1.01129	-0.237582	-0.237582;
	386	0.978455	0.978455	-0.441975	-0.441975;
	389	0.955953	0.955953	-0.394897	-0.394897;
	390	1.00213	1.00213	-0.261563	-0.261563;
	401	1.04271	1.04124	-0.204154	-0.204468;
	407	0.950933	0.950933	-0.42362	-0.42362;
	408	1.05047	1.05047	0.00606007	0.00606007;
	410	1.05394	1.05394	0.00230371	0.00230371;
	411	0.973732	0.973732	-0.472872	-0.472872;
	417	1.01017	1.01017	-0.192787	-0.192787;
	423	0.947927	0.947927	-0.359146	-0.359146;
	425	0.957274	0.955898	-0.397294	-0.397814;
	434	1.0449	1.0449	-0.114455	-0.114455;
	439	1.0037	1.0037	-0.297903	-0.297903;
	442	1.05161	1.05008	-0.162342	-0.162598;
	443	1.04037	1.03888	-0.27465	-0.274986;
	445	1.05019	1.05019	-0.0598288	-0.0598288;
	447	1.01787	1.01638	-0.224864	-0.225164;
	450	1.00537	1.00537	-0.260025	-0.260025;
	464	1.05713	1.0555	0.0469727	0.0469031;
	465	1.05233	1.05085	-0.208273	-0.20854;
	466	1.02381	1.02381	-0.126877	-0.126877;
	469	0.986474	0.986474	-0.271361	-0.271361;
	470	0.960382	0.959037	-0.461626	-0.46229;
	471	0.748757	0.747828	-0.652336	-0.653188;
	472	0.99268	0.99268	-0.307066	-0.307066;
	475	1.01862	1.01728	-0.224275	-0.224575;
	477	0.956934	0.956934	-0.397394	-0.397394;
	478	1.00149	1.00149	-0.177473	-0.177473;
	480	1.00967	1.00967	-0.195959	-0.195959;
	494	0.974312	0.974312	-0.346215	-0.346215;
	495	1.01673	1.01673	-0.209466	-0.209466;
	496	1.00277	1.00146	-0.176531	-0.176799;
	498	0.996104	0.994812	-0.202768	-0.203048;
	500	1.03063	1.03063	-0.219746	-0.219746;
	503	0.99377	0.992423	-0.36939	-0.36991;
	505	1.00596	1.00449	-0.244889	-0.245216;
	506	1.05631	1.05631	0.0469372	0.0469372;
	508	0.977971	0.976538	-0.2748	-0.275219;
	515	0.953821	0.953821	-0.269387	-0.269387;
	516	0.97236	0.97236	-0.36107	-0.36107;
	521	1.03401	1.03401	-0.0627806	-0.0627806;
	528	0.94649	0.94649	-0.420676	-0.420676;
	530	0.947982	0.947982	-0.290839	-0.290839;
	532	0.903604	0.902392	-0.53362	-0.534386;
	534	0.971239	0.971239	-0.476009	-0.476009;
	535	1.02852	1.02852	-0.0840114	-0.0840114;
	544	0.959431	0.959431	-0.392482	-0.392482;
	545	0.985895	0.985895	-0.328079	-0.328079;
	547	0.978814	0.977346	-0.332846	-0.333319;
	548	0.88881	0.887544	-0.573072	-0.573804;
	549	0.874496	0.874496	-0.583189	-0.583189;
	550	0.966274	0.966274	-0.469072	-0.469072;
	553	1.0562	1.0562	0.0857294	0.0857294;
	556	1.01086	1.00938	-0.256568	-0.256928;
	558	0.98541	0.984065	-0.361091	-0.36162;
	559	0.953723	0.95242	-0.420469	-0.421089;
	560	0.953124	0.953124	-0.435858	-0.435858;
	563	1.03641	1.03641	-0.0348682	-0.0348682;
	564	0.970798	0.970798	-0.367357	-0.367357;
	568	0.991635	0.991635	-0.368965	-0.368965;
	575	0.968576	0.968576	-0.381988	-0.381988;
	587	1.0428	1.04121	-0.204162	-0.204478;
	588	0.988673	0.988673	-0.266757	-0.266757;
	592	1.01544	1.01399	-0.244637	-0.244941;
	601	1.00291	1.00145	-0.181336	-0.181596;
	602	1.05126	1.04987	-0.162804	-0.163032;
	610	1.03968	1.03832	0.0528113	0.0527382;
	614	0.962856	0.961639	-0.388959	-0.389522;
	616	0.984289	0.984289	-0.32013	-0.32013;
	618	1.03411	1.03271	-0.264934	-0.265315;
	621	0.966905	0.966905	-0.375017	-0.375017;
	627	0.98366	0.98366	-0.268935	-0.268935;
	631	0.984529	0.983157	-0.368303	-0.368856;
	633	0.942268	0.942268	-0.446572	-0.446572;
	634	0.956387	0.956387	-0.398722	-0.398722;
	639	0.966311	0.966311	-0.401163	-0.401163;
	641	1.0024	1.00107	-0.301802	-0.302203;
	643	1.02517	1.02517	-0.239156	-0.239156;
	647	1.03167	1.03021	-0.204974	-0.205248;
	649	0.971947	0.971947	-0.365083	-0.365083;
	651	0.976563	0.976563	-0.367872	-0.367872;
	653	0.90029	0.899009	-0.567674	-0.568472;
	655	0.959634	0.959634	-0.26283	-0.26283;
	658	1.00675	1.00675	-0.287069	-0.287069;
	659	0.963978	0.963978	-0.443114	-0.443114;
...
];

%% PMU current injection data (confidence intervals around measurements)
%	bus_i	IR_MAX	IR_MIN	II_MAX	II_MIN
mpc.Ipmu = [
	5	     0	0	     0	0;
	7	-1.38124	-1.38124	0.838533	0.838533;
	11	-0.975726	-0.975726	0.639934	0.639934;
	12	-2.59274	-2.59274	2.57919	2.57919;
	14	     0	0	     0	0;
	15	     0	0	     0	0;
	22	-1.33385	-1.33385	0.556827	0.556827;
	24	-3.12961	-3.13408	1.44968	1.44771;
	25	7.58357e-10	-7.55059e-10	7.77761e-10	-7.35331e-10;
	29	-0.344295	-0.344295	0.218381	0.218381;
	38	-0.124603	-0.124603	0.0453282	0.0453282;
	51	2.16075	2.16075	-0.482328	-0.482328;
	56	     0	0	     0	0;
	59	-0.167993	-0.168247	0.11154	0.111391;
	60	-1.25805	-1.25805	0.678214	0.678214;
	62	     0	0	     0	0;
	64	3.24461	3.24461	-4.21395	-4.21395;
	67	     0	0	     0	0;
	68	-0.114559	-0.114559	0.140679	0.140679;
	72	-2.50789	-2.50789	0.619555	0.619555;
	74	-1.21296	-1.21448	0.721297	0.720325;
	82	-0.38383	-0.38383	0.276212	0.276212;
	83	-2.1987	-2.1987	1.35166	1.35166;
	85	0.0519125	0.0519125	-0.0316199	-0.0316199;
	87	0.330854	0.330854	-0.141262	-0.141262;
	92	-3.68241	-3.68241	2.07294	2.07294;
	93	     0	0	     0	0;
	94	-0.517909	-0.517909	0.416875	0.416875;
	95	1.64789	1.6457	-0.906133	-0.907377;
	101	-1.07402	-1.07402	0.173724	0.173724;
	102	0.151159	0.151159	-0.062894	-0.062894;
	104	0.524323	0.524323	-0.222041	-0.222041;
	106	-0.810333	-0.811385	0.286383	0.285986;
	110	7.76236e-10	-6.83238e-10	6.80384e-10	-7.23476e-10;
	111	12.1156	12.1156	-3.14256	-3.14256;
	112	7.17357e-10	-6.43095e-10	7.6359e-10	-7.89079e-10;
	118	13.1907	13.1907	-10.9731	-10.9731;
	120	     0	0	     0	0;
	121	-0.610446	-0.61128	0.505131	0.504457;
	124	-1.17141	-1.17141	0.157319	0.157319;
	127	7.99487e-10	-7.53449e-10	6.93745e-10	-6.25241e-10;
	130	-0.545259	-0.545259	0.349755	0.349755;
	132	-0.823061	-0.823061	0.32915	0.32915;
	138	-0.420228	-0.420228	0.0359597	0.0359597;
	140	0.0496975	0.0496975	-0.0405401	-0.0405401;
	144	-0.290585	-0.291004	0.130955	0.130766;
	146	     0	0	     0	0;
	147	     0	0	     0	0;
	148	     0	0	     0	0;
	152	7.9547	7.9547	-1.94733	-1.94733;
	153	     0	0	     0	0;
	155	     0	0	     0	0;
	168	-0.822147	-0.822147	0.258432	0.258432;
	170	-0.632001	-0.632001	0.253734	0.253734;
	172	-1.17402	-1.17402	0.440471	0.440471;
	174	-0.950158	-0.950158	0.572181	0.572181;
	177	-0.626343	-0.626343	0.361937	0.361937;
	180	-3.31522	-3.31522	0.881066	0.881066;
	186	-3.5661	-3.5661	2.98534	2.98534;
	188	-0.288855	-0.28924	0.269837	0.269458;
	189	7.89638e-10	-7.35234e-10	7.7773e-10	-7.43235e-10;
	191	0.555506	0.555506	-0.468634	-0.468634;
	195	-0.356564	-0.357097	0.215662	0.215352;
	196	-1.21937	-1.22127	0.726434	0.725328;
	197	-0.228304	-0.228304	0.189002	0.189002;
	200	-0.10429	-0.10429	0.0552402	0.0552402;
	215	     0	0	     0	0;
	218	-0.662584	-0.663599	0.208983	0.208717;
	221	6.87496e-10	-6.55024e-10	7.2246e-10	-6.3953e-10;
	223	-0.166405	-0.166405	0.129234	0.129234;
	228	-0.513622	-0.513622	0.462374	0.462374;
	230	     0	0	     0	0;
	231	-0.262394	-0.262394	0.438386	0.438386;
	234	     0	0	     0	0;
	235	-0.713109	-0.713109	0.062432	0.062432;
	243	0.258467	0.258467	-0.0586496	-0.0586496;
	250	0.265031	0.265031	-0.00471232	-0.00471232;
	255	-0.0882286	-0.0882286	-1.60752	-1.60752;
	256	     0	0	     0	0;
	259	-0.657355	-0.657355	0.342932	0.342932;
	260	6.39183e-10	-7.81153e-10	6.99269e-10	-7.19925e-10;
	265	-0.832286	-0.832286	0.301276	0.301276;
	267	     0	0	     0	0;
	272	7.35308e-10	-7.45785e-10	7.29107e-10	-6.76516e-10;
	276	6.09129e-10	-6.9841e-10	6.39226e-10	-7.03135e-10;
	279	-0.192618	-0.192878	-0.0261406	-0.0261801;
	282	1.19679	1.19679	0.0201714	0.0201714;
	284	-1.7928	-1.7928	0.815534	0.815534;
	287	-1.46236	-1.46447	1.81889	1.8163;
	295	-0.0298384	-0.0298384	0.0240754	0.0240754;
	297	-0.129536	-0.129536	0.0731827	0.0731827;
	298	-0.0229551	-0.0229551	0.0260546	0.0260546;
	300	8.27883	8.27883	-0.134177	-0.134177;
	302	-0.881422	-0.882515	0.756419	0.755328;
	303	-0.901958	-0.901958	0.2975	0.2975;
	306	-1.05505	-1.05505	0.548371	0.548371;
	308	     0	0	     0	0;
	318	-0.174801	-0.174801	0.119462	0.119462;
	323	-0.545241	-0.545241	-0.27596	-0.27596;
	330	-1.0523	-1.0523	0.8447	0.8447;
	335	     0	0	     0	0;
	336	-0.757102	-0.757102	0.359202	0.359202;
	340	-0.892954	-0.892954	0.675278	0.675278;
	347	-0.122315	-0.122315	0.110261	0.110261;
	354	-0.338759	-0.338759	0.311246	0.311246;
	355	-0.962543	-0.964004	0.0912644	0.0911459;
	357	6.89483e-10	-6.82073e-10	6.72461e-10	-6.6103e-10;
	358	-2.22852	-2.22852	1.7688	1.7688;
	360	13.1512	13.1512	-1.04047	-1.04047;
	362	-1.21937	-1.22106	0.546053	0.545326;
	368	2.72812	2.72468	0.199147	0.198866;
	371	0.0482984	0.0482984	-0.0288954	-0.0288954;
	375	0.50962	0.50962	-0.098773	-0.098773;
	378	-0.597523	-0.597523	0.190673	0.190673;
	382	0.678923	0.678923	-0.329205	-0.329205;
	386	     0	0	     0	0;
	389	0.00643384	0.00643384	-0.00265777	-0.00265777;
	390	-1.09368	-1.09368	0.521457	0.521457;
	401	0.258664	0.258313	-0.0584144	-0.0585019;
	407	     0	0	     0	0;
	408	     0	0	     0	0;
	410	11.8699	11.8699	-2.6843	-2.6843;
	411	0.681757	0.681757	-0.302728	-0.302728;
	417	-0.335147	-0.335147	0.200968	0.200968;
	423	     0	0	     0	0;
	425	-0.456024	-0.456671	0.330019	0.329508;
	434	0.0320411	0.0320411	-0.00454551	-0.00454551;
	439	     0	0	     0	0;
	442	6.45223e-10	-6.81992e-10	6.08433e-10	-6.33893e-10;
	443	7.78432e-10	-7.28329e-10	7.28285e-10	-6.62324e-10;
	445	     0	0	     0	0;
	447	1.53385	1.53189	-0.292537	-0.292938;
	450	-1.34137	-1.34137	0.543869	0.543869;
	464	6.95137e-10	-7.15396e-10	6.3655e-10	-7.26895e-10;
	465	0.344619	0.344136	-0.11437	-0.114533;
	466	-2.24172	-2.24172	0.997081	0.997081;
	469	-1.26893	-1.26893	0.409919	0.409919;
	470	7.85213e-10	-6.09194e-10	6.78516e-10	-6.40222e-10;
	471	-7.7376	-7.74818	4.31628	4.31023;
	472	-1.60678	-1.60678	0.827444	0.827444;
	475	-0.930166	-0.931291	0.546429	0.545701;
	477	-0.694639	-0.694639	0.496424	0.496424;
	478	-0.0768963	-0.0768963	0.0455791	0.0455791;
	480	-1.04739	-1.04739	0.0841419	0.0841419;
	494	     0	0	     0	0;
	495	     0	0	     0	0;
	496	7.10422e-10	-6.02852e-10	7.31601e-10	-7.48935e-10;
	498	-0.163829	-0.164052	-3.60158	-3.6061;
	500	0.456527	0.456527	0.1161	0.1161;
	503	-2.45951	-2.4627	1.57249	1.57031;
	505	-0.203464	-0.203752	0.11238	0.112227;
	506	     0	0	     0	0;
	508	-1.06806	-1.06942	0.751429	0.750514;
	515	     0	0	     0	0;
	516	-0.978776	-0.978776	0.17525	0.17525;
	521	-1.69637	-1.69637	0.795446	0.795446;
	528	     0	0	     0	0;
	530	     0	0	     0	0;
	532	-0.560781	-0.561607	0.684565	0.683495;
	534	0.105695	0.105695	-0.11795	-0.11795;
	535	0.363529	0.363529	-0.155992	-0.155992;
	544	-1.5428	-1.5428	0.96257	0.96257;
	545	-1.16346	-1.16346	0.325999	0.325999;
	547	-0.201888	-0.202151	0.134319	0.134125;
	548	-0.247646	-0.247998	0.358393	0.357869;
	549	     0	0	     0	0;
	550	-0.153208	-0.153208	0.126119	0.126119;
	553	8.19117	8.19117	-0.461099	-0.461099;
	556	-1.34733	-1.34922	0.734956	0.733857;
	558	0.247728	0.24736	-0.230433	-0.230747;
	559	-0.212057	-0.212393	-0.181601	-0.18185;
	560	     0	0	     0	0;
	563	-0.406055	-0.406055	0.113622	0.113622;
	564	     0	0	     0	0;
	568	-1.3003	-1.3003	0.936601	0.936601;
	575	-1.07895	-1.07895	0.680532	0.680532;
	587	0.25865	0.258313	-0.0585179	-0.0586023;
	588	     0	0	     0	0;
	592	-0.237929	-0.238301	-0.117983	-0.118149;
	601	7.37953e-10	-7.46837e-10	7.67695e-10	-7.77397e-10;
	602	-1.2637	-1.26543	0.100839	0.100691;
	610	0.879873	0.878514	-0.349628	-0.350068;
	614	7.77908e-10	-7.29482e-10	6.79589e-10	-7.69344e-10;
	616	     0	0	     0	0;
	618	6.80429e-10	-6.93263e-10	6.31769e-10	-6.92543e-10;
	621	-0.685408	-0.685408	0.395116	0.395116;
	627	0.576011	0.576011	-0.403075	-0.403075;
	631	-2.74771	-2.75168	1.07676	1.07513;
	633	-0.670807	-0.670807	0.543968	0.543968;
	634	     0	0	     0	0;
	639	     0	0	     0	0;
	641	6.66974e-10	-6.59894e-10	7.51828e-10	-7.74541e-10;
	643	-1.65195	-1.65195	0.892608	0.892608;
	647	6.69308e-10	-6.44756e-10	7.21996e-10	-7.59448e-10;
	649	     0	0	     0	0;
	651	-1.09695	-1.09695	0.714276	0.714276;
	653	-2.63365	-2.63692	1.23898	1.23718;
	655	     0	0	     0	0;
	658	-2.00444	-2.00444	1.15661	1.15661;
	659	-0.713707	-0.713707	0.491976	0.491976;
...
];

%% RTU injection data (confidence intervals around measurements)
%	bus_i	P_MIN	P_MAX	Q_MIN	Q_MAX	V_MIN	V_MAX
mpc.RTU = [
	1	 -1.56939	-1.46116351	-0.507217	-0.472457405	1.0133538	1.02052572;
	2	 -1.77112	-1.65726505	-0.241574	-0.225653097	1.02274251	1.03007772;
	3	 -1.38394	-1.29044374	 -0.25472	-0.237185052	1.03471304	1.04208646;
	4	 -1.67236	-1.55490573	-0.408331	-0.378247407	1.03270195	1.04030227;
	6	 -1.73365	-1.61691547	 -0.56759	-0.529146454	1.02915473	1.03590897;
	9	-0.501312	-0.470342089	-0.166259	-0.154746472	1.05953002	1.06677836;
	13	0.0807124	0.0870273435	-0.296582	-0.27771009	1.02677922	1.03402478;
	16	 -7.25997	-6.81625314	   0.3423	0.364484453	1.01711893	1.02366959;
	17	   8.2779	8.88350408	 0.546207	0.585446728	1.07730916	1.08577868;
	18	-0.245551	-0.229610789	-0.131874	-0.122236955	1.01714946	1.02392484;
	19	-0.395784	-0.370437256	-0.0581632	-0.0539090381	1.03589715	1.0424738;
	20	-0.336195	-0.311288688	-0.124548	-0.115460532	1.03770134	1.04534509;
	21	  0.65024	0.695917333	-0.0227927	-0.0213193065	1.05906667	1.06604383;
	23	 -1.04181	-0.969715033	-0.136557	-0.12768072	1.06595501	1.07359047;
	26	-0.379736	-0.356959759	-0.143428	-0.133445315	1.01557498	1.0226316;
	27	-0.754613	-0.705843191	-0.222203	-0.20857378	1.0530548	1.05985781;
	30	 -3.33241	-3.11685901	-0.872854	-0.815187017	1.0228548	1.03027308;
	31	 -1.61641	-1.49644432	 -0.56733	-0.527567205	1.03609842	1.04295399;
	32	 -1.08976	-1.01065498	-0.00103479	-0.000965302168	1.03900986	1.04625831;
	33	-0.720685	-0.676392709	-0.155744	-0.146487001	1.0421023	1.05004872;
	34	 -1.61098	-1.49243972	 0.324751	0.349310498	0.980868132	0.988416752;
	36	 -1.23294	-1.15054261	-0.305034	-0.287034904	1.03204719	1.03894513;
	37	-0.282212	-0.262374713	-0.123027	-0.115183726	1.03243029	1.03935548;
	39	 -1.06154	-0.991879716	-0.124763	-0.116079764	1.06362257	1.07090242;
	41	 -1.68697	-1.57679652	-0.478112	-0.444806116	1.00206349	1.00920839;
	42	 -5.42191	-5.07461806	-0.446694	-0.41425544	1.01098503	1.01856621;
	43	 0.805872	0.862258835	0.0259914	0.0278202987	1.04454654	1.05189748;
	44	 -2.03942	-1.89951453	-0.497727	-0.465961611	1.03680578	1.0448486;
	45	 -1.14121	-1.06989512	-0.272055	-0.252826388	1.03916411	1.04661354;
	46	  12.1071	12.9634602	  2.81449	3.00593381	1.05159459	1.05938839;
	47	-0.676469	-0.631200999	 0.495734	0.532607783	1.06772108	1.07519882;
	48	-0.585479	-0.546243979	-0.376308	-0.348587455	1.02331159	1.03016506;
	49	 -1.33034	-1.24129441	-0.0766434	-0.0716982168	1.03625043	1.04361737;
	50	 -1.77709	-1.65479106	-0.522441	-0.48827016	1.03802153	1.04536992;
	52	-0.731617	-0.685141616	-0.139064	-0.13057624	1.04192889	1.04903673;
	53	 -1.26891	-1.19028906	-0.0671944	-0.0626255135	1.03714045	1.04411967;
	57	  2.51718	2.68211949	 0.573812	0.616392425	1.01517291	1.02291236;
	58	 -2.84495	-2.65772437	-0.0585116	-0.0543367921	1.04297034	1.05040433;
	63	-0.594762	-0.555697052	-0.177217	-0.165734998	1.03437035	1.04213287;
	65	 -1.22897	-1.13895223	-0.210835	-0.197635598	1.0446324	1.05161809;
	70	-0.532798	-0.498951346	0.0518633	0.0559885557	1.06622899	1.0734379;
	73	-0.700028	-0.649632375	-0.175212	-0.1641801	1.03289844	1.04042757;
	75	-0.344644	-0.321451996	-0.0456247	-0.0425251936	0.993273828	1.00091066;
	76	 -1.56381	-1.45791253	-0.107667	-0.0999622415	1.06813128	1.07509836;
	78	 0.368131	0.393805706	0.00359452	0.00383004718	1.06041159	1.0675571;
	79	  3.65559	3.90956391	 0.389703	0.418089867	1.04477488	1.05280342;
	80	-0.751501	-0.705525982	-0.148601	-0.139666643	1.04352709	1.050625;
	81	-0.478461	-0.445970123	  1.22609	1.31045289	1.0479057	1.05499096;
	86	 -2.39146	-2.25068936	-0.925883	-0.866262079	0.982902051	0.98989961;
	89	-0.869555	-0.811894509	-0.218927	-0.204694395	1.0508127	1.05872343;
	90	 -1.39954	-1.298181	-0.424581	-0.396253615	1.02774189	1.03494754;
	97	  1.13038	1.2092064	  1.15672	1.23675954	1.01393257	1.02067608;
	99	 -1.58467	-1.47572637	-0.412179	-0.384172467	1.02078056	1.02749544;
	100	 -3.54233	-3.30851242	 -1.46706	-1.36668746	1.03056569	1.03768464;
	105	-0.522097	-0.489594545	-0.186093	-0.173979811	1.03106237	1.03881824;
	108	 -1.28298	-1.20554175	-0.305291	-0.284546322	1.05274992	1.06038664;
	113	 0.572161	0.617537561	  0.50369	0.541534928	0.996716047	1.00363821;
	114	  8.24312	8.87258622	  1.44991	1.56200551	1.02834113	1.03509139;
	115	  -1.1373	-1.0575357	-0.0350364	-0.0329158602	1.03686327	1.04472462;
	116	 -1.12163	-1.05336047	 0.209267	0.226205108	1.05343499	1.06020136;
	117	 -1.99407	-1.85689773	-0.809953	-0.755215465	1.01357721	1.02094916;
	122	 -6.53365	-6.08616466	 0.520576	0.562749976	1.03196485	1.03881606;
	125	 -0.35789	-0.331726113	-0.0877956	-0.0822676618	1.04178386	1.04907275;
	126	-0.639816	-0.597218487	 -0.15274	-0.141845135	1.03193112	1.03934867;
	129	 -1.12013	-1.04637325	 0.117251	0.125374845	1.06217273	1.06967973;
	133	  11.8219	12.6183706	  3.88301	4.15965192	1.06936792	1.07584507;
	134	-0.151662	-0.142237465	-0.0474795	-0.044387173	1.04300303	1.05136715;
	135	 0.886909	0.949197644	 0.533168	0.569600901	1.07042383	1.07830202;
	136	  1.64425	1.7694689	 0.112042	0.119514974	1.03833628	1.04504175;
	139	 -2.07771	-1.94558755	-0.550042	-0.510681004	1.02423918	1.03150815;
	141	-0.271402	-0.253116054	-0.0547344	-0.0513861822	1.0377451	1.0449304;
	142	 -3.94146	-3.70279389	-0.600397	-0.560488186	1.06414591	1.07130825;
	143	-0.359329	-0.335121799	-3.18436e-08	3.77711558e-08	1.03054778	1.03778101;
	145	  7.96914	8.59545537	  0.47662	0.510110531	1.02520382	1.03303141;
	149	 -2.87416	-2.68568026	 -0.61276	-0.57104663	1.03536183	1.04187222;
	150	 0.889469	0.95369668	0.0955733	0.102322736	1.04554936	1.05334416;
	151	-0.579722	-0.539177335	-0.192882	-0.181228344	1.00627239	1.0132001;
	154	 0.563122	0.603122708	0.0573971	0.0611623325	1.03929354	1.04622116;
	156	 -1.28034	-1.19657188	 0.163796	0.174128748	1.04637685	1.05316111;
	157	-0.307644	-0.286438788	-0.075672	-0.0706890946	1.0707939	1.07823572;
	159	 -1.97602	-1.83071348	-0.571295	-0.532623981	1.00002641	1.00719009;
	160	-0.167321	-0.157109753	-0.0207075	-0.0193217023	1.03121959	1.03816241;
	162	-0.338554	-0.315613526	-3.34495e-08	3.79182638e-08	1.02935514	1.03672481;
	164	-0.128042	-0.120200904	-0.0403612	-0.0375821229	1.03076417	1.03831277;
	165	-0.682303	-0.6356266	 -0.24952	-0.230436694	1.03414238	1.04186125;
	166	 -1.16839	-1.0799232	-0.134603	-0.125182962	1.0489809	1.0565842;
	169	 -2.05606	-1.92480968	 0.191987	0.206570371	1.06295882	1.07020192;
	171	-0.319023	-0.29802519	-0.0685109	-0.0636617075	1.05126125	1.05852258;
	178	  14.5126	15.5858482	  3.61167	3.85601885	1.10398129	1.11240939;
	181	   8.0873	8.62960201	 0.755316	0.80535503	1.02383371	1.03083092;
	183	  -1.7853	-1.66478525	 0.205293	0.22015489	1.06325821	1.07057137;
	184	-0.542357	-0.50613883	-0.0300348	-0.0279046727	1.02941907	1.03585345;
	185	 -1.28569	-1.19715661	0.0537954	0.0577486705	1.03342456	1.0406452;
	193	 -2.54539	-2.38895852	 0.143051	0.152559987	1.03752753	1.04494459;
	194	0.0316909	0.0340574866	0.0126904	0.0137057503	1.02889437	1.03643709;
	199	 -2.02876	-1.90608234	-0.455722	-0.427323227	1.01333418	1.02135167;
	201	 -1.50233	-1.3920317	-0.209149	-0.196331592	1.01873463	1.02621458;
	203	 -1.04325	-0.978302925	 0.148282	0.159212859	1.03971672	1.04756082;
	205	 0.474626	0.510954758	0.0286003	0.0306371765	1.04379271	1.05095237;
	209	 0.106027	0.114694287	0.0492118	0.0529643097	0.984921203	0.992378362;
	210	 0.601067	0.650378457	 0.100302	0.1074809	1.0441408	1.05138816;
	212	-0.822088	-0.764123888	-0.194015	-0.180742647	1.03101376	1.03840991;
	213	 0.017932	0.0191764496	0.0156859	0.0169266127	1.03070443	1.0380341;
	216	 0.105289	0.112793127	0.0572535	0.0611317897	1.03882961	1.04687239;
	217	-0.376682	-0.350149968	-0.157817	-0.146481872	1.03135107	1.03932451;
	219	 -1.30289	-1.2057821	-0.473014	-0.442017121	1.03568552	1.0428576;
	220	-0.438507	-0.409734045	-0.084941	-0.0789001227	1.03849992	1.04565175;
	226	-0.798702	-0.744658892	-0.248238	-0.232380341	1.03905309	1.04642242;
	227	 -1.62099	-1.51860508	0.0387703	0.0415967584	1.03214106	1.04000427;
	232	-0.739552	-0.694667652	-0.140855	-0.130591543	1.01246462	1.01957548;
	233	 0.490271	0.525586934	 0.134729	0.144779004	1.03978184	1.04743073;
	237	-0.757934	-0.704967863	-0.231866	-0.214851375	1.04688623	1.05334626;
	238	-0.435629	-0.405567	-0.0878092	-0.0822250146	1.04036906	1.04737533;
	239	  0.48534	0.522743927	 0.784858	0.840485136	1.02500264	1.03175892;
	240	-0.993796	-0.926928906	-0.267985	-0.250196435	1.03874327	1.04578936;
	241	 -4.67166	-4.34319409	 -2.55398	-2.38023559	1.05068824	1.05857189;
	242	-0.0379176	-0.0352836204	0.0180057	0.0191665251	1.04262876	1.04966244;
	244	  12.0578	12.9917776	  2.65101	2.84787232	1.04056261	1.04768429;
	245	-0.860918	-0.804105304	-0.266808	-0.248353582	1.04368237	1.05091636;
	246	-0.640956	-0.602889044	-0.0828822	-0.0774074399	1.03535362	1.04261896;
	247	    8.326	8.9179944	   1.1742	1.26769289	1.03431385	1.04143174;
	248	 0.148481	0.159342902	0.0478182	0.0512814232	1.00437778	1.01061178;
	249	-0.258856	-0.24218945	 0.593841	0.636289584	1.04953118	1.05682196;
	251	 0.166427	0.177680519	0.0421047	0.0450202912	1.02264379	1.02937288;
	254	-0.605728	-0.56359145	-0.0681886	-0.0639086093	1.03272561	1.04025423;
	258	 -3.45637	-3.22495165	0.0134506	0.0145440587	1.04524846	1.0528495;
	261	  12.0447	12.9132493	  2.57863	2.77262669	1.04963632	1.05695851;
	262	0.00605189	0.00651047723	0.00797309	0.00861455329	0.983944603	0.990733063;
	264	-0.00621048	-0.00579608233	-0.0473075	-0.0442278722	1.04274697	1.05028159;
	266	 -1.12304	-1.05499962	-0.349712	-0.325566587	1.06550969	1.07295634;
	269	  0.27183	0.292062671	0.00730788	0.00789851507	1.05849848	1.06542889;
	270	 0.151198	0.160767905	-0.0124643	-0.0116257371	1.0436289	1.05118747;
	271	 -2.51357	-2.3347255	 0.164488	0.177339323	1.05075841	1.05833839;
	273	-0.921706	-0.85306767	0.0308996	0.0332652183	1.05764271	1.06508684;
	274	  -2.1594	-2.01672925	-0.243387	-0.226977693	1.04160124	1.04844228;
	275	-0.121696	-0.112496905	-0.0393041	-0.0367255819	1.03183139	1.03867248;
	277	-0.282923	-0.264100663	-0.051599	-0.0483309411	1.02642772	1.0337725;
	278	  5.55189	5.93924856	 0.355766	0.383058891	1.03531001	1.04305023;
	283	 -2.04847	-1.89782404	 0.300213	0.319657555	1.04640806	1.05427198;
	286	 0.298039	0.319368702	 0.010896	0.0116211888	1.06064808	1.06869887;
	288	  -2.1659	-2.02935148	-0.682807	-0.64080161	1.07107472	1.07861986;
	290	 -1.83498	-1.70793096	-0.378463	-0.350991247	1.03772653	1.04463656;
	291	-0.266163	-0.247621575	-0.0755885	-0.0707622584	1.03012336	1.03655731;
	292	-0.429695	-0.398158119	-0.0506705	-0.0474560133	1.03502189	1.04236366;
	293	-0.745238	-0.695609876	-0.220213	-0.205452655	1.04125364	1.04857331;
	296	  8.24693	8.85868505	  1.46958	1.56917826	1.02695086	1.03434705;
	304	-0.799153	-0.74350246	-0.192588	-0.17950948	1.01695711	1.02378594;
	307	  1.70337	1.82189494	 0.311839	0.336002867	1.03667408	1.04448785;
	309	  -2.0723	-1.92229494	-0.588886	-0.548961995	1.03935678	1.04656303;
	310	0.0542645	0.0584651131	0.0274307	0.0293619837	1.01324469	1.01980581;
	312	-0.820908	-0.765917537	-0.194151	-0.180698803	1.03272132	1.03946225;
	314	 -1.10703	-1.03316048	-0.146696	-0.137276419	1.03595658	1.04319343;
	316	-0.659192	-0.616748045	-0.209942	-0.195064321	1.03529673	1.04257523;
	317	-0.368746	-0.343711542	0.0909949	0.0976521596	1.0449527	1.05234791;
	320	 -1.25822	-1.16676251	 0.303457	0.32519646	1.06957128	1.07666732;
	324	 -0.77662	-0.720597829	-0.277098	-0.258535248	1.04782083	1.05521626;
	329	 -1.04569	-0.972016438	0.0404629	0.0432619265	1.06458552	1.07223342;
	331	  0.37348	0.402442452	-0.217328	-0.202976412	1.04954984	1.05673458;
	332	  -2.1691	-2.01386617	 -0.63149	-0.587915472	1.01940265	1.02650558;
	333	  -1.7729	-1.65063504	-0.404401	-0.374442598	1.03118566	1.0380633;
	334	  1.06114	1.14335129	 0.174987	0.189311356	1.06930039	1.07653441;
	337	-0.331573	-0.309577138	-0.068284	-0.063492664	1.03494021	1.04200481;
	339	-0.409982	-0.383532979	-0.215924	-0.201735223	1.05683266	1.06484988;
	342	 -1.06853	-0.99590819	-0.278193	-0.260963172	1.04239129	1.04905204;
	343	 -1.00533	-0.939353822	-0.144301	-0.133725543	1.03628379	1.04303263;
	345	 0.757948	0.809555863	  0.23941	0.256151874	1.02083637	1.02860329;
	346	 -2.22978	-2.07057127	-0.323476	-0.300880039	1.04072989	1.04842962;
	348	-0.394526	-0.367796585	-0.159577	-0.149065708	1.02968274	1.03673157;
	350	 -1.05078	-0.980906853	-0.181633	-0.169032556	1.03310459	1.04061126;
	351	-0.214837	-0.201031757	-3.87713e-08	3.42909916e-08	1.06651085	1.07386851;
	353	 -3.32142	-3.10633631	 0.118392	0.126112145	1.04405412	1.05165517;
	356	-0.448044	-0.417453361	-0.180468	-0.168064204	1.03384799	1.04090964;
	361	-0.317739	-0.29530036	-0.0990373	-0.0922536733	1.03590573	1.04330747;
	364	 0.453772	0.485428535	0.0518195	0.0553890892	1.04477359	1.05133402;
	366	0.0254664	0.0275271535	0.0112369	0.0121309425	1.00490895	1.01166296;
	367	 0.307361	0.329684654	 0.140167	0.150781011	1.03882303	1.04620318;
	370	 -1.19651	-1.1211194	-0.303411	-0.284351255	1.02452424	1.03169603;
	372	 -2.46259	-2.29763443	-0.482722	-0.453502993	1.04136529	1.04804805;
	373	-0.621324	-0.579006648	-0.172311	-0.161500995	1.04078536	1.04739329;
	374	-0.532585	-0.49775275	-0.021797	-0.0202433889	1.03402114	1.04111758;
	376	 -1.64254	-1.54176933	-0.398021	-0.368197641	1.0197903	1.02675043;
	377	-0.547417	-0.508018874	-0.134648	-0.125967417	1.04296706	1.05116114;
	379	 -2.62156	-2.4548662	-0.873289	-0.816049879	1.02779039	1.03433042;
	380	-0.153065	-0.141593685	-0.0561281	-0.0523510864	1.02912521	1.03723267;
	381	-0.264044	-0.247973059	-0.131437	-0.122898191	1.03708388	1.04390213;
	383	  13.1292	14.1957687	  3.04693	3.26317287	1.05733041	1.06515681;
	384	 -2.11024	-1.95468022	-0.677053	-0.631493066	1.04226311	1.04909116;
	387	 0.404251	0.434475118	 0.316104	0.338038235	1.03239726	1.0397477;
	388	 -2.15149	-1.99274098	-0.522007	-0.484312437	1.01567583	1.02241188;
	392	 -0.16822	-0.156700547	-0.0920091	-0.0858640947	1.03474496	1.04245217;
	393	 -1.56278	-1.46282227	-0.285027	-0.267592607	1.03910136	1.04696306;
	394	 0.750466	0.80194329	-0.138733	-0.128448459	1.03202789	1.03895919;
	396	-0.883918	-0.82174611	-0.213514	-0.20000847	1.00946536	1.01674703;
	397	-0.573891	-0.534594279	-0.273845	-0.255165762	1.04586143	1.05388859;
	398	-0.357359	-0.332440146	-0.0886461	-0.0832275682	1.03816159	1.04539505;
	400	-0.879727	-0.826312854	-0.148062	-0.138368954	1.0442806	1.05215221;
	402	  11.7291	12.6296335	  3.66924	3.96771041	1.07016502	1.07775111;
	405	-0.979566	-0.920712901	-0.0374454	-0.0348368767	1.03883697	1.04605602;
	406	 0.644928	0.688411236	-0.0125563	-0.0117103952	1.04974859	1.05773738;
	409	-0.261309	-0.244794062	-0.146907	-0.136664677	1.03278317	1.04025155;
...
];

%% generator data
%	bus	Pg	Qg	Qmax	Qmin	Vg	mBase	status	Pmax	Pmin	Pc1	Pc2	Qc1min	Qc1max	Qc2min	Qc2max	ramp_agc	ramp_10	ramp_30	ramp_q	apf
mpc.gen = [
	17	861.3	56.3898479	440.32	-172.59	1.081537	100	1	1000	333.33	0	0	0	0	0	0	0	0	0	0	0;
	21	67.29	-2.20911921	77.09	-22.54	1.062805	100	1	160	0	0	0	0	0	0	0	0	0	0	0	0;
	34	-155.39	33.6846032	183.92	-65.3	0.984682	100	1	100	-207.18	0	0	0	0	0	0	0	0	0	0	0;
	43	83.7	2.69205967	55.54	-19.16	1.048249	100	1	120	0	0	0	0	0	0	0	0	0	0	0	0;
	46	1250.4	291.385868	926.35	-297.68	1.055378	100	1	2000	666.67	0	0	0	0	0	0	0	0	0	0	0;
	51	231	26.2905139	124.12	-49.84	1.05013	100	1	280	0	0	0	0	0	0	0	0	0	0	0	0;
	57	260.1	59.3134524	257.23	-74.4	1.018914	100	1	540	0	0	0	0	0	0	0	0	0	0	0	0;
	64	539.4	190.458909	261.79	-106.67	1.075592	100	1	600	200	0	0	0	0	0	0	0	0	0	0	0;
	70	-51.67	5.38999831	18.47	-19.35	1.069817	100	1	100	-68.89	0	0	0	0	0	0	0	0	0	0	0;
	72	-270	5.47123572	17.88	-7.03	1.045397	100	1	100	-360	0	0	0	0	0	0	0	0	0	0	0;
	78	38.2	0.370945883	17.09	-7.79	1.063876	100	1	40	0	0	0	0	0	0	0	0	0	0	0	0;
	79	379.2	40.5684267	217.9	-81.16	1.048713	100	1	480	160	0	0	0	0	0	0	0	0	0	0	0;
	81	-46.2	126.705562	135.52	-38.9	1.051376	100	1	100	-61.6	0	0	0	0	0	0	0	0	0	0	0;
	87	37.4	8.97029054	38.77	-11.06	1.0691	100	1	80	0	0	0	0	0	0	0	0	0	0	0	0;
	95	198.88	0.702020326	105.69	-43.84	1.057884	100	1	240	0	0	0	0	0	0	0	0	0	0	0	0;
	97	116.7	119.666753	51.3	-23.41	1.017567	100	1	120	0	0	0	0	0	0	0	0	0	0	0	0;
	101	-111.4	7.7186253	18.16	-6.73	1.026368	100	1	100	-148.53	0	0	0	0	0	0	0	0	0	0	0;
	102	16.5	4.7896668	12.37	-9.36	1.049411	100	1	33.58	0	0	0	0	0	0	0	0	0	0	0	0;
	104	58.4	8.12644674	36.75	-13.04	1.035522	100	1	80	0	0	0	0	0	0	0	0	0	0	0	0;
	106	-89.2	7.85216853	74.03	-25.54	1.041369	100	1	100	-118.93	0	0	0	0	0	0	0	0	0	0	0;
	111	1274.2	290.279666	926.68	-298.31	1.044097	100	1	2000	666.67	0	0	0	0	0	0	0	0	0	0	0;
	113	59.56	52.3533848	96.64	-27.81	1.00025	100	1	200	0	0	0	0	0	0	0	0	0	0	0	0;
	114	855.6	150.352068	440.67	-172.15	1.031745	100	1	1000	333.33	0	0	0	0	0	0	0	0	0	0	0;
	118	1702.8	660.832358	1097.41	-373.91	1.064525	100	1	2400	800	0	0	0	0	0	0	0	0	0	0	0;
	133	1221.2	402.965166	934.73	-291.52	1.072621	100	1	2000	666.67	0	0	0	0	0	0	0	0	0	0	0;
	135	92.1	55.2186383	55.02	-19.81	1.074143	100	1	120	0	0	0	0	0	0	0	0	0	0	0	0;
	136	171	11.5893269	89.55	-35.15	1.041506	100	1	200	0	0	0	0	0	0	0	0	0	0	0	0;
	145	829.5	49.2039376	387.88	-163.4	1.028946	100	1	900	300	0	0	0	0	0	0	0	0	0	0	0;
	150	91.8	9.87105411	54.91	-19.88	1.049472	100	1	120	0	0	0	0	0	0	0	0	0	0	0	0;
	152	837	83.1139176	550.69	-185.15	1.027056	100	1	1200	400	0	0	0	0	0	0	0	0	0	0	0;
	154	58.2	5.92889364	36.8	-13.01	1.042801	100	1	80	0	0	0	0	0	0	0	0	0	0	0	0;
	156	-124.15	16.9029026	38.05	-11.59	1.049879	100	1	100	-165.54	0	0	0	0	0	0	0	0	0	0	0;
	178	1504.8	373.757289	906.61	-319.44	1.108028	100	1	2000	666.67	0	0	0	0	0	0	0	0	0	0	0;
	181	837	78.1419353	550.69	-185.15	1.027102	100	1	1200	400	0	0	0	0	0	0	0	0	0	0	0;
	185	-124.1	5.58842958	36.92	-12.88	1.03682	100	1	100	-165.47	0	0	0	0	0	0	0	0	0	0	0;
	191	67.2	33.4584617	57.03	-17.62	1.032899	100	1	120	0	0	0	0	0	0	0	0	0	0	0	0;
	193	-246.5	14.7744343	38.08	-11.73	1.041045	100	1	100	-328.67	0	0	0	0	0	0	0	0	0	0	0;
	203	-101	15.4361952	18.09	-6.79	1.04353	100	1	100	-134.67	0	0	0	0	0	0	0	0	0	0	0;
	205	49.4	2.97438193	37.72	-12.09	1.047684	100	1	80	0	0	0	0	0	0	0	0	0	0	0	0;
	210	62.6	10.4067751	36.4	-13.44	1.048068	100	1	80	0	0	0	0	0	0	0	0	0	0	0	0;
	233	50.6	14.0292242	37.66	-12.17	1.043862	100	1	80	0	0	0	0	0	0	0	0	0	0	0	0;
	239	50.4	81.3427462	37.74	-12.11	1.028554	100	1	80	0	0	0	0	0	0	0	0	0	0	0	0;
	244	1250.4	274.820589	928.89	-296.1	1.04395	100	1	2000	666.67	0	0	0	0	0	0	0	0	0	0	0;
	247	860.8	122.055847	439.37	-173.3	1.037938	100	1	1000	333.33	0	0	0	0	0	0	0	0	0	0	0;
	250	28.1	1.79198275	18.52	-6.39	1.062238	100	1	40	0	0	0	0	0	0	0	0	0	0	0	0;
	255	40	163.059761	16.99	-7.92	1.04286	100	1	41.06	0	0	0	0	0	0	0	0	0	0	0	0;
	261	1250.4	267.929345	926.35	-297.68	1.05295	100	1	2000	666.67	0	0	0	0	0	0	0	0	0	0	0;
	264	-0.6	-4.57432186	111.23	-38.16	1.046224	100	1	100	-0.8	0	0	0	0	0	0	0	0	0	0	0;
	270	15.6	-1.20048955	11.76	-8.89	1.04762	100	1	31.92	0	0	0	0	0	0	0	0	0	0	0	0;
	271	-241.8	17.1083508	58.16	-16.52	1.054325	100	1	100	-322.4	0	0	0	0	0	0	0	0	0	0	0;
	278	573.68	36.8871277	396.02	-155.83	1.039377	100	1	912.78	312.78	0	0	0	0	0	0	0	0	0	0	0;
	282	115.5	-45.0146169	160.36	-150.95	1.035636	100	1	472.16	39.35	0	0	0	0	0	0	0	0	0	0	0;
	286	31	1.12819635	18.14	-6.75	1.064692	100	1	40	0	0	0	0	0	0	0	0	0	0	0	0;
	296	855.6	152.117305	441.85	-171.27	1.03088	100	1	1000	333.33	0	0	0	0	0	0	0	0	0	0	0;
	300	836.2	0.609446536	962.2	-263.65	1.009914	100	1	2000	666.67	0	0	0	0	0	0	0	0	0	0	0;
	307	176	32.4580335	88.39	-36.19	1.040351	100	1	200	0	0	0	0	0	0	0	0	0	0	0	0;
	320	-121.3	31.4552378	58.35	-16.26	1.07333	100	1	100	-161.73	0	0	0	0	0	0	0	0	0	0	0;
	323	-53.29	34.1270634	19.51	-14.74	1.035528	100	1	100	-71.05	0	0	0	0	0	0	0	0	0	0	0;
	331	38.9	-20.9906138	41.67	-36.5	1.05324	100	1	119.3	0	0	0	0	0	0	0	0	0	0	0	0;
	334	110.5	18.2131177	95.69	-28.93	1.072528	100	1	200	0	0	0	0	0	0	0	0	0	0	0	0;
	345	78.2	24.8022049	34.35	-15.5	1.024884	100	1	80	0	0	0	0	0	0	0	0	0	0	0	0;
	353	-320.4	12.2384531	37.39	-12.45	1.047766	100	1	100	-427.2	0	0	0	0	0	0	0	0	0	0	0;
	355	-100.5	6.95186361	54.3	-20.49	1.041186	100	1	100	-134	0	0	0	0	0	0	0	0	0	0	0;
	356	-43.2	-17.4901129	105.34	-99.02	1.037687	100	1	100	-57.6	0	0	0	0	0	0	0	0	0	0	0;
	360	1367	304.262354	921.62	-304.73	1.06157	100	1	2000	666.67	0	0	0	0	0	0	0	0	0	0	0;
	364	46.8	5.35891752	38.02	-11.81	1.048132	100	1	80	0	0	0	0	0	0	0	0	0	0	0	0;
	367	31.8	14.599222	39.12	-10.71	1.042777	100	1	80	0	0	0	0	0	0	0	0	0	0	0	0;
	368	286.5	-14.2372908	162.4	-61.79	1.049366	100	1	360	0	0	0	0	0	0	0	0	0	0	0	0;
	375	54.3	4.34898631	58.23	-16.49	1.049384	100	1	120	0	0	0	0	0	0	0	0	0	0	0	0;
	382	76.48	17.1620868	76.08	-23.59	1.038821	100	1	160	0	0	0	0	0	0	0	0	0	0	0	0;
	383	1367	314.486719	921.52	-304.79	1.061488	100	1	2000	666.67	0	0	0	0	0	0	0	0	0	0	0;
	387	41.92	32.7205715	51.94	-22.8	1.036517	100	1	120	0	0	0	0	0	0	0	0	0	0	0	0;
	394	77.6	-13.3715897	70.15	-58.1	1.035384	100	1	196.72	0	0	0	0	0	0	0	0	0	0	0	0;
	402	1221.2	382.187863	934.81	-291.47	1.073795	100	1	2000	666.67	0	0	0	0	0	0	0	0	0	0	0;
	405	-95.1	-3.61895672	88.33	-36.33	1.042226	100	1	100	-126.8	0	0	0	0	0	0	0	0	0	0	0;
	406	66.8	-1.218749	77.91	-21.66	1.05396	100	1	160	0	0	0	0	0	0	0	0	0	0	0	0;
	410	1250.4	285.644052	926.26	-297.74	1.053944	100	1	2000	666.67	0	0	0	0	0	0	0	0	0	0	0;
	411	80.7	-2.76078809	55.98	-18.76	1.08248	100	1	120	0	0	0	0	0	0	0	0	0	0	0	0;
	412	31.6	5.83194382	18.19	-6.74	1.043712	100	1	40	0	0	0	0	0	0	0	0	0	0	0	0;
	419	4.5	0.803643225	3.31	-2.54	1.063841	100	1	9.05	0	0	0	0	0	0	0	0	0	0	0	0;
	421	8.95	-7.8109435	72.95	-68.71	1.057626	100	1	214.86	0	0	0	0	0	0	0	0	0	0	0	0;
	422	60.9	13.0768516	57.69	-17.02	1.055151	100	1	120	0	0	0	0	0	0	0	0	0	0	0	0;
	426	20.9	1.16174948	19.19	-5.72	1.059072	100	1	40	0	0	0	0	0	0	0	0	0	0	0	0;
	432	53.2	2.60045787	37.24	-12.54	1.047695	100	1	80	0	0	0	0	0	0	0	0	0	0	0	0;
	434	3.4	0.108232939	2.51	-1.91	1.051149	100	1	6.83	0	0	0	0	0	0	0	0	0	0	0	0;
	444	46.6	-57.4746697	184.46	-132.67	1.053607	100	1	493.35	0	0	0	0	0	0	0	0	0	0	0	0;
	447	162.5	-4.72026596	89.61	-34.82	1.041705	100	1	200	0	0	0	0	0	0	0	0	0	0	0	0;
	451	855.7	148.667171	441.85	-171.27	1.030654	100	1	1000	333.33	0	0	0	0	0	0	0	0	0	0	0;
	465	38.6	4.85743736	17.33	-7.61	1.071964	100	1	40	0	0	0	0	0	0	0	0	0	0	0	0;
	468	85.54	11.679748	113.97	-35.56	1.065372	100	1	240	0	0	0	0	0	0	0	0	0	0	0	0;
	469	-136.3	-6.00375901	70.25	-29.33	1.023117	100	1	100	-181.73	0	0	0	0	0	0	0	0	0	0	0;
	473	98.7	-2.68744793	53.7	-20.98	1.055515	100	1	120	0	0	0	0	0	0	0	0	0	0	0	0;
	479	416.7	239.524867	243.61	-88.46	1.041982	100	1	540	0	0	0	0	0	0	0	0	0	0	0	0;
	480	-107.4	12.028981	36.79	-13	1.028507	100	1	100	-143.2	0	0	0	0	0	0	0	0	0	0	0;
	484	-42.3	-14.5270861	62.23	-51.37	1.050305	100	1	100	-56.4	0	0	0	0	0	0	0	0	0	0	0;
	492	861.3	143.441595	439.2	-173.43	1.071978	100	1	1000	333.33	0	0	0	0	0	0	0	0	0	0	0;
	493	-26.48	17.5463665	38.13	-11.64	1.014126	100	1	100	-35.3	0	0	0	0	0	0	0	0	0	0	0;
	498	56.8	362.081388	37.1	-12.76	1.01594	100	1	80	0	0	0	0	0	0	0	0	0	0	0	0;
	499	19.07	5.94182783	38.2	-11.61	1.045739	100	1	80	0	0	0	0	0	0	0	0	0	0	0	0;
	500	44.5	-21.9976988	47.19	-41.44	1.0538	100	1	135.27	0	0	0	0	0	0	0	0	0	0	0	0;
	502	2.4	9.88652456	54.59	-20.19	1.039984	100	1	120	0	0	0	0	0	0	0	0	0	0	0	0;
	507	53.7	-3.15788188	58.19	-16.5	1.063657	100	1	120	0	0	0	0	0	0	0	0	0	0	0	0;
	510	521	230.920191	550.97	-184.89	1.060777	100	1	1200	400	0	0	0	0	0	0	0	0	0	0	0;
	518	-370.8	13.365514	53.75	-21.08	1.04852	100	1	100	-494.4	0	0	0	0	0	0	0	0	0	0	0;
	524	829.8	96.3955694	387.88	-163.4	1.028771	100	1	900	300	0	0	0	0	0	0	0	0	0	0	0;
	534	15.88	6.4246181	38.83	-10.97	1.081614	100	1	80	0	0	0	0	0	0	0	0	0	0	0	0;
	537	539	189.226835	261.7	-107.36	1.07602	100	1	600	0	0	0	0	0	0	0	0	0	0	0	0;
	545	-125.4	6.03058306	54.59	-20.12	1.03905	100	1	100	-167.2	0	0	0	0	0	0	0	0	0	0	0;
	551	-26.2	17.4011294	116.07	-33.32	1.070983	100	1	100	-34.93	0	0	0	0	0	0	0	0	0	0	0;
	553	861.2	118.923695	441.04	-172.05	1.059676	100	1	1000	333.33	0	0	0	0	0	0	0	0	0	0	0;
	559	-12.58	26.2479784	36.34	-13.47	1.041813	100	1	100	-16.78	0	0	0	0	0	0	0	0	0	0	0;
	565	854.7	192.29109	548.57	-187.16	1.031629	100	1	1200	400	0	0	0	0	0	0	0	0	0	0	0;
	574	257	128.434192	313.01	-116.73	1.084785	100	1	700	233.33	0	0	0	0	0	0	0	0	0	0	0;
	578	837.3	54.884243	388.17	-163.4	1.026994	100	1	900	300	0	0	0	0	0	0	0	0	0	0	0;
	585	855.6	150.486409	440.69	-172.14	1.031907	100	1	1000	333.33	0	0	0	0	0	0	0	0	0	0	0;
	586	-25.1	-0.743094486	34.27	-15.52	1.044501	100	1	100	-33.47	0	0	0	0	0	0	0	0	0	0	0;
	592	-21.27	17.8080621	38.02	-11.77	1.043758	100	1	100	-28.37	0	0	0	0	0	0	0	0	0	0	0;
	598	-27.1	-72.9890716	126.16	-127.56	1.027439	100	1	100	-36.13	0	0	0	0	0	0	0	0	0	0	0;
	602	-134.5	10.0164622	55.67	-19.09	1.063145	100	1	100	-179.33	0	0	0	0	0	0	0	0	0	0	0;
	610	89.5	40.9878826	97.07	-27.44	1.040328	100	1	200	0	0	0	0	0	0	0	0	0	0	0	0;
	617	-76.9	3.77338606	38.05	-11.77	1.038526	100	1	100	-102.53	0	0	0	0	0	0	0	0	0	0	0;
	619	366.1	54.272203	264.94	-103.74	1.063234	100	1	600	0	0	0	0	0	0	0	0	0	0	0	0;
	624	41	9.06422687	38.37	-11.4	1.027195	100	1	80	0	0	0	0	0	0	0	0	0	0	0	0;
	625	59.6	67.3122578	36.89	-13	1.003502	100	1	80	0	0	0	0	0	0	0	0	0	0	0	0;
	627	67.5	24.1579208	57.03	-17.63	1.019761	100	1	120	0	0	0	0	0	0	0	0	0	0	0	0;
	640	2456.28371	873.013222	99999	-99999	1.049182	100	1	4188.95	1333.33	0	0	0	0	0	0	0	0	0	0	0;
	654	60.2	6.92503953	36.73	-13.12	1.028646	100	1	80	0	0	0	0	0	0	0	0	0	0	0	0;
	660	-129.1	7.68162529	38.48	-11.33	1.039834	100	1	100	-172.13	0	0	0	0	0	0	0	0	0	0	0;
	664	861.3	121.613155	441.04	-172.05	1.059565	100	1	1000	333.33	0	0	0	0	0	0	0	0	0	0	0;
	669	861.3	143.56167	439.2	-173.43	1.071852	100	1	1000	333.33	0	0	0	0	0	0	0	0	0	0	0;
	670	35.2	14.092682	38.85	-10.95	1.049914	100	1	80	0	0	0	0	0	0	0	0	0	0	0	0;
	676	-171.8	17.984973	37.86	-11.95	1.036047	100	1	100	-229.07	0	0	0	0	0	0	0	0	0	0	0;
	688	-30.39	10.1050302	37.94	-11.87	1.073282	100	1	100	-40.51	0	0	0	0	0	0	0	0	0	0	0;
	694	68	8.3170399	35.62	-14.19	1.042135	100	1	80	0	0	0	0	0	0	0	0	0	0	0	0;
	696	-78.9	8.29487911	19.14	-5.77	1.049813	100	1	100	-105.2	0	0	0	0	0	0	0	0	0	0	0;
	702	93.2	-37.6410231	98.4	-86.29	1.043063	100	1	281.85	0	0	0	0	0	0	0	0	0	0	0	0;
	713	861.3	141.415754	439.2	-173.43	1.071981	100	1	1000	333.33	0	0	0	0	0	0	0	0	0	0	0;
	715	-26.08	38.4599708	38.37	-11.44	1.067305	100	1	100	-34.77	0	0	0	0	0	0	0	0	0	0	0;
	716	855.6	152.240915	440.69	-172.14	1.031907	100	1	1000	333.33	0	0	0	0	0	0	0	0	0	0	0;
	717	10.3	1.91126328	4.44	-2.07	1.067114	100	1	10.46	0	0	0	0	0	0	0	0	0	0	0	0;
	721	88.8	15.0813223	76.52	-23.19	1.054975	100	1	160	0	0	0	0	0	0	0	0	0	0	0	0;
	726	-40.3	6.36604829	75.62	-23.96	1.034991	100	1	100	-53.73	0	0	0	0	0	0	0	0	0	0	0;
	732	41.69	22.678969	37.27	-12.57	1.057325	100	1	80	0	0	0	0	0	0	0	0	0	0	0	0;
	739	-12.57	6.97605338	37.23	-12.61	1.045386	100	1	100	-16.77	0	0	0	0	0	0	0	0	0	0	0;
	744	54.3	13.9677556	74.73	-70.41	1.0663	100	1	220.12	0	0	0	0	0	0	0	0	0	0	0	0;
	747	49.4	2.95254744	37.72	-12.09	1.047693	100	1	80	0	0	0	0	0	0	0	0	0	0	0	0;
	749	83.48	6.60583479	74.55	-24.97	1.037373	100	1	160	0	0	0	0	0	0	0	0	0	0	0	0;
	750	542	147.549117	258.91	-109.58	1.021924	100	1	600	0	0	0	0	0	0	0	0	0	0	0	0;
	756	-52.51	10.3793137	38.28	-11.5	1.032061	100	1	100	-70.01	0	0	0	0	0	0	0	0	0	0	0;
	757	75.6	-3.90906638	56.35	-18.42	1.055539	100	1	120	0	0	0	0	0	0	0	0	0	0	0	0;
	760	1713.6	215.272036	882.86	-343.24	1.035201	100	1	2000	666.67	0	0	0	0	0	0	0	0	0	0	0;
	769	106.8	19.1426743	75.02	-24.74	1.052719	100	1	160	0	0	0	0	0	0	0	0	0	0	0	0;
	774	119.4	2.15740205	51.3	-23.49	1.042037	100	1	120	0	0	0	0	0	0	0	0	0	0	0	0;
	782	-159	21.1090336	36.37	-13.43	1.054941	100	1	100	-212	0	0	0	0	0	0	0	0	0	0	0;
	788	19.59	26.3154563	18.14	-6.75	1.061754	100	1	40	0	0	0	0	0	0	0	0	0	0	0	0;
	789	1250.6	367.01286	926.47	-297.63	1.107976	100	1	2000	666.67	0	0	0	0	0	0	0	0	0	0	0;
	793	-395.8	21.0446462	58.06	-16.66	1.048137	100	1	100	-527.73	0	0	0	0	0	0	0	0	0	0	0;
	806	43.4	36.0701444	38.26	-11.55	1.06213	100	1	80	0	0	0	0	0	0	0	0	0	0	0	0;
	809	1368.6	147.182142	920.31	-305.64	1.063711	100	1	2000	666.67	0	0	0	0	0	0	0	0	0	0	0;
	810	56.8	-2.18323402	101.32	-48.12	1.044486	100	1	249.06	0	0	0	0	0	0	0	0	0	0	0	0;
	811	861.3	119.597887	441.04	-172.05	1.059636	100	1	1000	333.33	0	0	0	0	0	0	0	0	0	0	0;
	812	-96.4	31.0522137	37.49	-12.33	1.041881	100	1	100	-128.53	0	0	0	0	0	0	0	0	0	0	0;
	813	3424.8	361.375795	1765.36	-686.67	1.068845	100	1	4000	1333.33	0	0	0	0	0	0	0	0	0	0	0;
	819	173	16.1676215	88.87	-35.71	1.038212	100	1	200	0	0	0	0	0	0	0	0	0	0	0	0;
	820	21.5	2.58802377	19.16	-5.75	1.05378	100	1	40	0	0	0	0	0	0	0	0	0	0	0	0;
	822	57.6	15.6449162	36.8	-12.99	1.04123	100	1	80	0	0	0	0	0	0	0	0	0	0	0	0;
	836	229.8	254.490627	103.18	-46.25	1.017689	100	1	240	0	0	0	0	0	0	0	0	0	0	0	0;
	837	128	15.4828541	72.71	-27.05	1.070507	100	1	160	0	0	0	0	0	0	0	0	0	0	0	0;
	844	837	75.6906105	550.69	-185.15	1.027078	100	1	1200	400	0	0	0	0	0	0	0	0	0	0	0;
	853	1102.83	463.730049	779.29	-324.79	1.0396	100	1	1800	600	0	0	0	0	0	0	0	0	0	0	0;
	857	181.2	50.8767497	196.98	-77.17	1.044051	100	1	440	146.67	0	0	0	0	0	0	0	0	0	0	0;
	861	305.7	47.4575208	214.13	-85	1.038417	100	1	480	160	0	0	0	0	0	0	0	0	0	0	0;
	863	60	8.07393989	36.72	-13.13	1.065605	100	1	80	0	0	0	0	0	0	0	0	0	0	0	0;
	869	74.9	-18.6982649	17.21	-7.73	1.030075	100	1	100	-99.87	0	0	0	0	0	0	0	0	0	0	0;
	872	1221.2	381.015679	934.54	-291.64	1.070056	100	1	2000	666.67	0	0	0	0	0	0	0	0	0	0	0;
	873	-102.5	63.7139922	37.27	-12.59	1.066029	100	1	100	-136.67	0	0	0	0	0	0	0	0	0	0	0;
	877	-87.3	-12.6582256	60.51	-61.08	1.029184	100	1	100	-116.4	0	0	0	0	0	0	0	0	0	0	0;
	880	820.2	307.65465	390.4	-161.16	1.043738	100	1	900	300	0	0	0	0	0	0	0	0	0	0	0;
	893	94.3	-30.5718036	249.65	-261.82	0.988112	100	1	769.94	32.08	0	0	0	0	0	0	0	0	0	0	0;
	895	26.3	1.68119293	19.86	-14.93	1.040343	100	1	53.76	0	0	0	0	0	0	0	0	0	0	0	0;
	913	55.5	29.477194	58.12	-16.6	1.040598	100	1	120	0	0	0	0	0	0	0	0	0	0	0	0;
	917	48.8	6.0677881	37.76	-12.05	1.052181	100	1	80	0	0	0	0	0	0	0	0	0	0	0	0;
	918	96	-8.55142418	96.56	-27.95	1.062214	100	1	200	0	0	0	0	0	0	0	0	0	0	0	0;
	920	22.08	19.8121722	38.29	-11.56	1.064446	100	1	80	0	0	0	0	0	0	0	0	0	0	0	0;
	922	-145.3	10.5436436	51.11	-23.46	1.043835	100	1	100	-193.73	0	0	0	0	0	0	0	0	0	0	0;
	924	-27.8	-12.8369184	148.65	-50.73	1.046714	100	1	100	-37.07	0	0	0	0	0	0	0	0	0	0	0;
	931	171	18.586838	88.83	-35.69	1.039574	100	1	200	0	0	0	0	0	0	0	0	0	0	0	0;
	936	718.5	-4.47346347	438.72	-174.15	1.06557	100	1	1000	333.33	0	0	0	0	0	0	0	0	0	0	0;
	942	228.2	13.0462935	126.73	-47.83	1.052452	100	1	280	0	0	0	0	0	0	0	0	0	0	0	0;
	945	-204.2	11.2314334	37.58	-12.16	1.048796	100	1	100	-272.27	0	0	0	0	0	0	0	0	0	0	0;
	971	382.7	-55.5764556	311.52	-132.09	1.061492	100	1	720	0	0	0	0	0	0	0	0	0	0	0	0;
	985	44.07	33.1981527	77.14	-22.46	1.006037	100	1	160	0	0	0	0	0	0	0	0	0	0	0	0;
	986	16.53	4.63033171	77.35	-22.26	1.053803	100	1	160	0	0	0	0	0	0	0	0	0	0	0	0;
	987	15.9	-0.292037141	11.99	-9.06	1.049557	100	1	32.53	0	0	0	0	0	0	0	0	0	0	0	0;
	989	-57.5	8.55096069	35.62	-14.25	1.031347	100	1	100	-76.67	0	0	0	0	0	0	0	0	0	0	0;
...